#

@<TRIPOS>MOLECULE
tmp2.pdb
 55 59 0 0 0
SMALL
GASTEIGER

@<TRIPOS>ATOM
      1 N         101.0670   99.5900   78.6680 N.ar      1 LIG        -0.1310
      2 N1        102.0870  100.2770   78.9250 N.ar      1 LIG        -0.0650
      3 N2        102.1540  100.5440   80.1250 N.ar      1 LIG        -0.2470
      4 C          95.2200   94.2240   82.9180 C.2       1 LIG         0.1392
      5 C1         96.1630   93.5560   83.6100 C.2       1 LIG         0.0288
      6 C2         97.4530   93.9770   83.7410 C.2       1 LIG         0.1967
      7 C3         97.8080   95.1480   83.1330 C.ar      1 LIG         0.1091
      8 C4         96.8640   95.8150   82.4430 C.ar      1 LIG         0.1465
      9 C5         99.0620   95.6510   83.1990 C.ar      1 LIG         0.1768
     10 C6         99.3910   96.8130   82.5830 C.ar      1 LIG         0.2043
     11 C7         98.4460   97.5060   81.9050 C.ar      1 LIG         0.1697
     12 C8         97.2160   96.9660   81.8500 C.ar      1 LIG         0.0270
     13 C9         92.2690   92.1200   82.6690 C.ar      1 LIG        -0.0611
     14 C10        93.5560   92.4880   82.7850 C.ar      1 LIG        -0.0511
     15 C11        93.9400   93.7820   82.8030 C.ar      1 LIG         0.0174
     16 C12        92.9430   94.6900   82.6960 C.ar      1 LIG        -0.0511
     17 C13        91.6530   94.3400   82.5800 C.ar      1 LIG        -0.0611
     18 C14        91.3060   93.0460   82.5660 C.ar      1 LIG        -0.0617
     19 C15       101.7060   96.7190   81.9020 C.3       1 LIG         0.0791
     20 C16        99.2120   98.6550   79.9190 C.3       1 LIG         0.1348
     21 C17       100.4870   99.4390   79.7850 C.ar      1 LIG         0.1199
     22 C18       101.1750  100.0500   80.7570 C.ar      1 LIG         0.0524
     23 C19       103.1790  101.3240   80.8350 C.3       1 LIG         0.0682
     24 C20       103.9660  100.4050   81.7420 C.ar      1 LIG        -0.0261
     25 C21       103.4310   99.9470   82.8890 C.ar      1 LIG        -0.0568
     26 C22       104.1270   99.1310   83.6960 C.ar      1 LIG        -0.0614
     27 C23       105.3740   98.7630   83.3640 C.ar      1 LIG        -0.0617
     28 C24       105.9180   99.2130   82.2240 C.ar      1 LIG        -0.0614
     29 C25       105.2160  100.0280   81.4210 C.ar      1 LIG        -0.0568
     30 O          95.5740   95.3930   82.3090 O.3       1 LIG        -0.4544
     31 O1         98.1960   93.2710   84.3960 O.2       1 LIG        -0.2869
     32 O2        100.0560   95.0100   83.8810 O.3       1 LIG        -0.5027
     33 O3        100.6930   97.2470   82.7270 O.3       1 LIG        -0.4885
     34 O4         98.7780   98.6740   81.2630 O.3       1 LIG        -0.4818
     35 H         100.9240   95.3970   83.6940 H         1 LIG         0.2923
     36 HC         95.8800   92.6310   84.0900 H         1 LIG         0.0693
     37 HC1        96.4590   97.4950   81.2900 H         1 LIG         0.0692
     38 HC2        92.0090   91.0720   82.6590 H         1 LIG         0.0618
     39 HC3        94.3110   91.7200   82.8670 H         1 LIG         0.0625
     40 HC4        93.1960   95.7400   82.7040 H         1 LIG         0.0625
     41 HC5        90.8930   95.1030   82.4980 H         1 LIG         0.0618
     42 HC6        90.2700   92.7550   82.4740 H         1 LIG         0.0618
     43 HC7        98.4450   99.1000   79.2850 H         1 LIG         0.0764
     44 HC8        99.3860   97.6250   79.6090 H         1 LIG         0.0764
     45 HC9       100.9520  100.1070   81.8120 H         1 LIG         0.0846
     46 HC10      103.8520  101.7850   80.1120 H         1 LIG         0.0559
     47 HC11      102.6980  102.1000   81.4310 H         1 LIG         0.0559
     48 HC12      102.4280  100.2400   83.1640 H         1 LIG         0.0621
     49 HC13      103.6830   98.7710   84.6120 H         1 LIG         0.0618
     50 HC14      105.9370   98.1070   84.0120 H         1 LIG         0.0618
     51 HC15      106.9210   98.9200   81.9520 H         1 LIG         0.0618
     52 HC16      105.6610  100.3860   80.5040 H         1 LIG         0.0621
     53 HC17      102.6610   97.1770   82.1590 H         1 LIG         0.0660
     54 HC18      101.7690   95.6410   82.0500 H         1 LIG         0.0660
     55 HC19      101.4710   96.9300   80.8590 H         1 LIG         0.0660
@<TRIPOS>BOND
     1    1    2 1  
     2    1   21 1  
     3    2    3 2  
     4   43   20 1  
     5   44   20 1  
     6   21   20 1  
     7   21   22 2  
     8   20   34 1  
     9   46   23 1  
    10    3   22 1  
    11    3   23 1  
    12   52   29 1  
    13   22   45 1  
    14   23   47 1  
    15   23   24 1  
    16   55   19 1  
    17   34   11 1  
    18   37   12 1  
    19   29   24 2  
    20   29   28 1  
    21   24   25 1  
    22   12   11 2  
    23   12    8 1  
    24   19   54 1  
    25   19   53 1  
    26   19   33 1  
    27   11   10 1  
    28   51   28 1  
    29   28   27 2  
    30   30    8 1  
    31   30    4 1  
    32    8    7 2  
    33   42   18 1  
    34   41   17 1  
    35   18   17 2  
    36   18   13 1  
    37   17   16 1  
    38   10   33 1  
    39   10    9 2  
    40   38   13 1  
    41   13   14 2  
    42   16   40 1  
    43   16   15 2  
    44   14   15 1  
    45   14   39 1  
    46   15    4 1  
    47   25   48 1  
    48   25   26 2  
    49    4    5 2  
    50    7    9 1  
    51    7    6 1  
    52    9   32 1  
    53   27   26 1  
    54   27   50 1  
    55    5    6 1  
    56    5   36 1  
    57   35   32 1  
    58   26   49 1  
    59    6   31 2  
